<nodes>
    <node id="start" x="0" y="0" type="priority"/>
    <node id="end" x="500" y="0" type="priority"/>
</nodes>
