<edges>
    <edge id="edge0" from="start" to="end" priority="1" numLanes="2" speed="13.9"/>
</edges>
