<?xml version="1.0" encoding="UTF-8"?>

<!-- generated on 2025-07-24 02:34:11 by Eclipse SUMO netconvert Version 1.19.0
<configuration xmlns:xsi="http://www.w3.org/2001/XMLSchema-instance" xsi:noNamespaceSchemaLocation="http://sumo.dlr.de/xsd/netconvertConfiguration.xsd">

    <input>
        <node-files value="obstacle.nod.xml"/>
        <edge-files value="obstacle.edg.xml"/>
    </input>

    <output>
        <output-file value="obstacle.net.xml"/>
    </output>

</configuration>
-->

<net version="1.16" junctionCornerDetail="5" limitTurnSpeed="5.50" xmlns:xsi="http://www.w3.org/2001/XMLSchema-instance" xsi:noNamespaceSchemaLocation="http://sumo.dlr.de/xsd/net_file.xsd">

    <location netOffset="0.00,0.00" convBoundary="0.00,0.00,500.00,0.00" origBoundary="0.00,0.00,500.00,0.00" projParameter="!"/>

    <edge id="edge0" from="start" to="end" priority="1">
        <lane id="edge0_0" index="0" speed="13.90" length="500.00" shape="0.00,-4.80 500.00,-4.80"/>
        <lane id="edge0_1" index="1" speed="13.90" length="500.00" shape="0.00,-1.60 500.00,-1.60"/>
    </edge>

    <junction id="end" type="dead_end" x="500.00" y="0.00" incLanes="edge0_0 edge0_1" intLanes="" shape="500.00,-6.40 500.00,0.00"/>
    <junction id="start" type="dead_end" x="0.00" y="0.00" incLanes="" intLanes="" shape="0.00,0.00 0.00,-6.40"/>

</net>
